/*--------------------------------*- C++ -*----------------------------------*\
  =========                 |
  \\      /  F ield         | OpenFOAM: The Open Source CFD Toolbox
   \\    /   O peration     | Website:  https://openfoam.org
    \\  /    A nd           | Version:  7
     \\/     M anipulation  |
\*---------------------------------------------------------------------------*/
FoamFile
{
    version     2.0;
    format      ascii;
    class       dictionary;
    object      setFieldsDict;
}
// * * * * * * * * * * * * * * * * * * * * * * * * * * * * * * * * * * * * * //

defaultFieldValues
(
    volScalarFieldValue tracer 0
);

regions
(
    // Setting values inside a box
    boxToCell
    {
        box     (0.25 0.30 0) (0.50 0.45 0.10);
        fieldValues
        (
            volScalarFieldValue tracer 1
        );
    }
);


// ************************************************************************* //
